OpenDSS_files/OPF_pvs.dss
New Generator.DG_S150a Bus1 =150.1 Phases = 1 kV=2.402 kW=0.0 kvar=0 model=1 Vmaxpu=2.0 Vminpu=0.1
New Generator.DG_S150b Bus1 =150.2 Phases = 1 kV=2.402 kW=0.0 kvar=0 model=1 Vmaxpu=2.0 Vminpu=0.1
New Generator.DG_S150c Bus1 =150.3 Phases = 1 kV=2.402 kW=0.0 kvar=0 model=1 Vmaxpu=2.0 Vminpu=0.1
New Generator.DG_S150ra Bus1 =150r.1 Phases = 1 kV=2.402 kW=0.0 kvar=0 model=1 Vmaxpu=2.0 Vminpu=0.1
New Generator.DG_S150rb Bus1 =150r.2 Phases = 1 kV=2.402 kW=0.0 kvar=0 model=1 Vmaxpu=2.0 Vminpu=0.1
New Generator.DG_S150rc Bus1 =150r.3 Phases = 1 kV=2.402 kW=0.0 kvar=0 model=1 Vmaxpu=2.0 Vminpu=0.1
New Generator.DG_S149a Bus1 =149.1 Phases = 1 kV=2.402 kW=0.0 kvar=0 model=1 Vmaxpu=2.0 Vminpu=0.1
New Generator.DG_S149b Bus1 =149.2 Phases = 1 kV=2.402 kW=0.0 kvar=0 model=1 Vmaxpu=2.0 Vminpu=0.1
New Generator.DG_S149c Bus1 =149.3 Phases = 1 kV=2.402 kW=0.0 kvar=0 model=1 Vmaxpu=2.0 Vminpu=0.1
New Generator.DG_S1a Bus1 =1.1 Phases = 1 kV=2.402 kW=35.999999980929715 kvar=0 model=1 Vmaxpu=2.0 Vminpu=0.1
New Generator.DG_S1b Bus1 =1.2 Phases = 1 kV=2.402 kW=0.0 kvar=0 model=1 Vmaxpu=2.0 Vminpu=0.1
New Generator.DG_S1c Bus1 =1.3 Phases = 1 kV=2.402 kW=0.0 kvar=0 model=1 Vmaxpu=2.0 Vminpu=0.1
New Generator.DG_S2b Bus1 =2.2 Phases = 1 kV=2.402 kW=17.99999998859961 kvar=0 model=1 Vmaxpu=2.0 Vminpu=0.1
New Generator.DG_S3c Bus1 =3.3 Phases = 1 kV=2.402 kW=0.0 kvar=0 model=1 Vmaxpu=2.0 Vminpu=0.1
New Generator.DG_S7a Bus1 =7.1 Phases = 1 kV=2.402 kW=17.999999976820927 kvar=0 model=1 Vmaxpu=2.0 Vminpu=0.1
New Generator.DG_S7b Bus1 =7.2 Phases = 1 kV=2.402 kW=0.0 kvar=0 model=1 Vmaxpu=2.0 Vminpu=0.1
New Generator.DG_S7c Bus1 =7.3 Phases = 1 kV=2.402 kW=0.0 kvar=0 model=1 Vmaxpu=2.0 Vminpu=0.1
New Generator.DG_S4c Bus1 =4.3 Phases = 1 kV=2.402 kW=35.99999998968445 kvar=0 model=1 Vmaxpu=2.0 Vminpu=0.1
New Generator.DG_S5c Bus1 =5.3 Phases = 1 kV=2.402 kW=0.0 kvar=0 model=1 Vmaxpu=2.0 Vminpu=0.1
New Generator.DG_S6c Bus1 =6.3 Phases = 1 kV=2.402 kW=35.999999989209456 kvar=0 model=1 Vmaxpu=2.0 Vminpu=0.1
New Generator.DG_S8a Bus1 =8.1 Phases = 1 kV=2.402 kW=0.0 kvar=0 model=1 Vmaxpu=2.0 Vminpu=0.1
New Generator.DG_S8b Bus1 =8.2 Phases = 1 kV=2.402 kW=0.0 kvar=0 model=1 Vmaxpu=2.0 Vminpu=0.1
New Generator.DG_S8c Bus1 =8.3 Phases = 1 kV=2.402 kW=0.0 kvar=0 model=1 Vmaxpu=2.0 Vminpu=0.1
New Generator.DG_S12b Bus1 =12.2 Phases = 1 kV=2.402 kW=17.99999998712834 kvar=0 model=1 Vmaxpu=2.0 Vminpu=0.1
New Generator.DG_S9a Bus1 =9.1 Phases = 1 kV=2.402 kW=35.99999997338999 kvar=0 model=1 Vmaxpu=2.0 Vminpu=0.1
New Generator.DG_S13a Bus1 =13.1 Phases = 1 kV=2.402 kW=0.0 kvar=0 model=1 Vmaxpu=2.0 Vminpu=0.1
New Generator.DG_S13b Bus1 =13.2 Phases = 1 kV=2.402 kW=0.0 kvar=0 model=1 Vmaxpu=2.0 Vminpu=0.1
New Generator.DG_S13c Bus1 =13.3 Phases = 1 kV=2.402 kW=0.0 kvar=0 model=1 Vmaxpu=2.0 Vminpu=0.1
New Generator.DG_S9ra Bus1 =9r.1 Phases = 1 kV=2.402 kW=0.0 kvar=0 model=1 Vmaxpu=2.0 Vminpu=0.1
New Generator.DG_S14a Bus1 =14.1 Phases = 1 kV=2.402 kW=0.0 kvar=0 model=1 Vmaxpu=2.0 Vminpu=0.1
New Generator.DG_S34c Bus1 =34.3 Phases = 1 kV=2.402 kW=35.99999995812905 kvar=0 model=1 Vmaxpu=2.0 Vminpu=0.1
New Generator.DG_S18a Bus1 =18.1 Phases = 1 kV=2.402 kW=0.0 kvar=0 model=1 Vmaxpu=2.0 Vminpu=0.1
New Generator.DG_S18b Bus1 =18.2 Phases = 1 kV=2.402 kW=0.0 kvar=0 model=1 Vmaxpu=2.0 Vminpu=0.1
New Generator.DG_S18c Bus1 =18.3 Phases = 1 kV=2.402 kW=0.0 kvar=0 model=1 Vmaxpu=2.0 Vminpu=0.1
New Generator.DG_S11a Bus1 =11.1 Phases = 1 kV=2.402 kW=35.999999976396325 kvar=0 model=1 Vmaxpu=2.0 Vminpu=0.1
New Generator.DG_S10a Bus1 =10.1 Phases = 1 kV=2.402 kW=17.999999976626935 kvar=0 model=1 Vmaxpu=2.0 Vminpu=0.1
New Generator.DG_S15c Bus1 =15.3 Phases = 1 kV=2.402 kW=0.0 kvar=0 model=1 Vmaxpu=2.0 Vminpu=0.1
New Generator.DG_S16c Bus1 =16.3 Phases = 1 kV=2.402 kW=35.99999996287901 kvar=0 model=1 Vmaxpu=2.0 Vminpu=0.1
New Generator.DG_S17c Bus1 =17.3 Phases = 1 kV=2.402 kW=17.999999975289814 kvar=0 model=1 Vmaxpu=2.0 Vminpu=0.1
New Generator.DG_S19a Bus1 =19.1 Phases = 1 kV=2.402 kW=35.999999866385195 kvar=0 model=1 Vmaxpu=2.0 Vminpu=0.1
New Generator.DG_S21a Bus1 =21.1 Phases = 1 kV=2.402 kW=0.0 kvar=0 model=1 Vmaxpu=2.0 Vminpu=0.1
New Generator.DG_S21b Bus1 =21.2 Phases = 1 kV=2.402 kW=0.0 kvar=0 model=1 Vmaxpu=2.0 Vminpu=0.1
New Generator.DG_S21c Bus1 =21.3 Phases = 1 kV=2.402 kW=0.0 kvar=0 model=1 Vmaxpu=2.0 Vminpu=0.1
New Generator.DG_S20a Bus1 =20.1 Phases = 1 kV=2.402 kW=35.99999986653126 kvar=0 model=1 Vmaxpu=2.0 Vminpu=0.1
New Generator.DG_S22b Bus1 =22.2 Phases = 1 kV=2.402 kW=35.9999999687345 kvar=0 model=1 Vmaxpu=2.0 Vminpu=0.1
New Generator.DG_S23a Bus1 =23.1 Phases = 1 kV=2.402 kW=0.0 kvar=0 model=1 Vmaxpu=2.0 Vminpu=0.1
New Generator.DG_S23b Bus1 =23.2 Phases = 1 kV=2.402 kW=0.0 kvar=0 model=1 Vmaxpu=2.0 Vminpu=0.1
New Generator.DG_S23c Bus1 =23.3 Phases = 1 kV=2.402 kW=0.0 kvar=0 model=1 Vmaxpu=2.0 Vminpu=0.1
New Generator.DG_S24c Bus1 =24.3 Phases = 1 kV=2.402 kW=24.377873625584975 kvar=0 model=1 Vmaxpu=2.0 Vminpu=0.1
New Generator.DG_S25a Bus1 =25.1 Phases = 1 kV=2.402 kW=0.0 kvar=0 model=1 Vmaxpu=2.0 Vminpu=0.1
New Generator.DG_S25b Bus1 =25.2 Phases = 1 kV=2.402 kW=0.0 kvar=0 model=1 Vmaxpu=2.0 Vminpu=0.1
New Generator.DG_S25c Bus1 =25.3 Phases = 1 kV=2.402 kW=0.0 kvar=0 model=1 Vmaxpu=2.0 Vminpu=0.1
New Generator.DG_S25ra Bus1 =25r.1 Phases = 1 kV=2.402 kW=0.0 kvar=0 model=1 Vmaxpu=2.0 Vminpu=0.1
New Generator.DG_S25rc Bus1 =25r.3 Phases = 1 kV=2.402 kW=0.0 kvar=0 model=1 Vmaxpu=2.0 Vminpu=0.1
New Generator.DG_S26a Bus1 =26.1 Phases = 1 kV=2.402 kW=0.0 kvar=0 model=1 Vmaxpu=2.0 Vminpu=0.1
New Generator.DG_S26c Bus1 =26.3 Phases = 1 kV=2.402 kW=0.0 kvar=0 model=1 Vmaxpu=2.0 Vminpu=0.1
New Generator.DG_S28a Bus1 =28.1 Phases = 1 kV=2.402 kW=0.0 kvar=0 model=1 Vmaxpu=2.0 Vminpu=0.1
New Generator.DG_S28b Bus1 =28.2 Phases = 1 kV=2.402 kW=0.0 kvar=0 model=1 Vmaxpu=2.0 Vminpu=0.1
New Generator.DG_S28c Bus1 =28.3 Phases = 1 kV=2.402 kW=0.0 kvar=0 model=1 Vmaxpu=2.0 Vminpu=0.1
New Generator.DG_S27a Bus1 =27.1 Phases = 1 kV=2.402 kW=0.0 kvar=0 model=1 Vmaxpu=2.0 Vminpu=0.1
New Generator.DG_S27c Bus1 =27.3 Phases = 1 kV=2.402 kW=0.0 kvar=0 model=1 Vmaxpu=2.0 Vminpu=0.1
New Generator.DG_S31c Bus1 =31.3 Phases = 1 kV=2.402 kW=17.99999936081902 kvar=0 model=1 Vmaxpu=2.0 Vminpu=0.1
New Generator.DG_S33a Bus1 =33.1 Phases = 1 kV=2.402 kW=4.115713905431647 kvar=0 model=1 Vmaxpu=2.0 Vminpu=0.1
New Generator.DG_S29a Bus1 =29.1 Phases = 1 kV=2.402 kW=35.99999943094557 kvar=0 model=1 Vmaxpu=2.0 Vminpu=0.1
New Generator.DG_S29b Bus1 =29.2 Phases = 1 kV=2.402 kW=0.0 kvar=0 model=1 Vmaxpu=2.0 Vminpu=0.1
New Generator.DG_S29c Bus1 =29.3 Phases = 1 kV=2.402 kW=0.0 kvar=0 model=1 Vmaxpu=2.0 Vminpu=0.1
New Generator.DG_S30a Bus1 =30.1 Phases = 1 kV=2.402 kW=0.0 kvar=0 model=1 Vmaxpu=2.0 Vminpu=0.1
New Generator.DG_S30b Bus1 =30.2 Phases = 1 kV=2.402 kW=0.0 kvar=0 model=1 Vmaxpu=2.0 Vminpu=0.1
New Generator.DG_S30c Bus1 =30.3 Phases = 1 kV=2.402 kW=0.0 kvar=0 model=1 Vmaxpu=2.0 Vminpu=0.1
New Generator.DG_S250a Bus1 =250.1 Phases = 1 kV=2.402 kW=0.0 kvar=0 model=1 Vmaxpu=2.0 Vminpu=0.1
New Generator.DG_S250b Bus1 =250.2 Phases = 1 kV=2.402 kW=0.0 kvar=0 model=1 Vmaxpu=2.0 Vminpu=0.1
New Generator.DG_S250c Bus1 =250.3 Phases = 1 kV=2.402 kW=0.0 kvar=0 model=1 Vmaxpu=2.0 Vminpu=0.1
New Generator.DG_S32c Bus1 =32.3 Phases = 1 kV=2.402 kW=11.696198849005826 kvar=0 model=1 Vmaxpu=2.0 Vminpu=0.1
New Generator.DG_S35a Bus1 =35.1 Phases = 1 kV=2.402 kW=35.999999754638495 kvar=0 model=1 Vmaxpu=2.0 Vminpu=0.1
New Generator.DG_S35b Bus1 =35.2 Phases = 1 kV=2.402 kW=0.0 kvar=0 model=1 Vmaxpu=2.0 Vminpu=0.1
New Generator.DG_S35c Bus1 =35.3 Phases = 1 kV=2.402 kW=0.0 kvar=0 model=1 Vmaxpu=2.0 Vminpu=0.1
New Generator.DG_S36a Bus1 =36.1 Phases = 1 kV=2.402 kW=0.0 kvar=0 model=1 Vmaxpu=2.0 Vminpu=0.1
New Generator.DG_S36b Bus1 =36.2 Phases = 1 kV=2.402 kW=0.0 kvar=0 model=1 Vmaxpu=2.0 Vminpu=0.1
New Generator.DG_S40a Bus1 =40.1 Phases = 1 kV=2.402 kW=0.0 kvar=0 model=1 Vmaxpu=2.0 Vminpu=0.1
New Generator.DG_S40b Bus1 =40.2 Phases = 1 kV=2.402 kW=0.0 kvar=0 model=1 Vmaxpu=2.0 Vminpu=0.1
New Generator.DG_S40c Bus1 =40.3 Phases = 1 kV=2.402 kW=0.0 kvar=0 model=1 Vmaxpu=2.0 Vminpu=0.1
New Generator.DG_S37a Bus1 =37.1 Phases = 1 kV=2.402 kW=35.999999770731634 kvar=0 model=1 Vmaxpu=2.0 Vminpu=0.1
New Generator.DG_S38b Bus1 =38.2 Phases = 1 kV=2.402 kW=17.99999997968077 kvar=0 model=1 Vmaxpu=2.0 Vminpu=0.1
New Generator.DG_S39b Bus1 =39.2 Phases = 1 kV=2.402 kW=17.999999973254415 kvar=0 model=1 Vmaxpu=2.0 Vminpu=0.1
New Generator.DG_S41c Bus1 =41.3 Phases = 1 kV=2.402 kW=12.370903485633308 kvar=0 model=1 Vmaxpu=2.0 Vminpu=0.1
New Generator.DG_S42a Bus1 =42.1 Phases = 1 kV=2.402 kW=17.999998333543033 kvar=0 model=1 Vmaxpu=2.0 Vminpu=0.1
New Generator.DG_S42b Bus1 =42.2 Phases = 1 kV=2.402 kW=0.0 kvar=0 model=1 Vmaxpu=2.0 Vminpu=0.1
New Generator.DG_S42c Bus1 =42.3 Phases = 1 kV=2.402 kW=0.0 kvar=0 model=1 Vmaxpu=2.0 Vminpu=0.1
New Generator.DG_S43b Bus1 =43.2 Phases = 1 kV=2.402 kW=35.99999997368642 kvar=0 model=1 Vmaxpu=2.0 Vminpu=0.1
New Generator.DG_S44a Bus1 =44.1 Phases = 1 kV=2.402 kW=0.0 kvar=0 model=1 Vmaxpu=2.0 Vminpu=0.1
New Generator.DG_S44b Bus1 =44.2 Phases = 1 kV=2.402 kW=0.0 kvar=0 model=1 Vmaxpu=2.0 Vminpu=0.1
New Generator.DG_S44c Bus1 =44.3 Phases = 1 kV=2.402 kW=0.0 kvar=0 model=1 Vmaxpu=2.0 Vminpu=0.1
New Generator.DG_S45a Bus1 =45.1 Phases = 1 kV=2.402 kW=16.754398324852165 kvar=0 model=1 Vmaxpu=2.0 Vminpu=0.1
New Generator.DG_S47a Bus1 =47.1 Phases = 1 kV=2.402 kW=23.865628571667585 kvar=0 model=1 Vmaxpu=2.0 Vminpu=0.1
New Generator.DG_S47b Bus1 =47.2 Phases = 1 kV=2.402 kW=0.0 kvar=0 model=1 Vmaxpu=2.0 Vminpu=0.1
New Generator.DG_S47c Bus1 =47.3 Phases = 1 kV=2.402 kW=31.499999202505993 kvar=0 model=1 Vmaxpu=2.0 Vminpu=0.1
New Generator.DG_S46a Bus1 =46.1 Phases = 1 kV=2.402 kW=16.86338471926464 kvar=0 model=1 Vmaxpu=2.0 Vminpu=0.1
New Generator.DG_S48a Bus1 =48.1 Phases = 1 kV=2.402 kW=36.53492078175148 kvar=0 model=1 Vmaxpu=2.0 Vminpu=0.1
New Generator.DG_S48b Bus1 =48.2 Phases = 1 kV=2.402 kW=62.999999982016284 kvar=0 model=1 Vmaxpu=2.0 Vminpu=0.1
New Generator.DG_S48c Bus1 =48.3 Phases = 1 kV=2.402 kW=62.99999930353147 kvar=0 model=1 Vmaxpu=2.0 Vminpu=0.1
New Generator.DG_S49a Bus1 =49.1 Phases = 1 kV=2.402 kW=6.670168796711234 kvar=0 model=1 Vmaxpu=2.0 Vminpu=0.1
New Generator.DG_S49b Bus1 =49.2 Phases = 1 kV=2.402 kW=62.99999989040212 kvar=0 model=1 Vmaxpu=2.0 Vminpu=0.1
New Generator.DG_S49c Bus1 =49.3 Phases = 1 kV=2.402 kW=31.499999547941314 kvar=0 model=1 Vmaxpu=2.0 Vminpu=0.1
New Generator.DG_S50a Bus1 =50.1 Phases = 1 kV=2.402 kW=0.0 kvar=0 model=1 Vmaxpu=2.0 Vminpu=0.1
New Generator.DG_S50b Bus1 =50.2 Phases = 1 kV=2.402 kW=0.0 kvar=0 model=1 Vmaxpu=2.0 Vminpu=0.1
New Generator.DG_S50c Bus1 =50.3 Phases = 1 kV=2.402 kW=35.99999981259287 kvar=0 model=1 Vmaxpu=2.0 Vminpu=0.1
New Generator.DG_S51a Bus1 =51.1 Phases = 1 kV=2.402 kW=4.524335319147999 kvar=0 model=1 Vmaxpu=2.0 Vminpu=0.1
New Generator.DG_S51b Bus1 =51.2 Phases = 1 kV=2.402 kW=0.0 kvar=0 model=1 Vmaxpu=2.0 Vminpu=0.1
New Generator.DG_S51c Bus1 =51.3 Phases = 1 kV=2.402 kW=0.0 kvar=0 model=1 Vmaxpu=2.0 Vminpu=0.1
New Generator.DG_S151a Bus1 =151.1 Phases = 1 kV=2.402 kW=0.0 kvar=0 model=1 Vmaxpu=2.0 Vminpu=0.1
New Generator.DG_S151b Bus1 =151.2 Phases = 1 kV=2.402 kW=0.0 kvar=0 model=1 Vmaxpu=2.0 Vminpu=0.1
New Generator.DG_S151c Bus1 =151.3 Phases = 1 kV=2.402 kW=0.0 kvar=0 model=1 Vmaxpu=2.0 Vminpu=0.1
New Generator.DG_S52a Bus1 =52.1 Phases = 1 kV=2.402 kW=35.999999923155066 kvar=0 model=1 Vmaxpu=2.0 Vminpu=0.1
New Generator.DG_S52b Bus1 =52.2 Phases = 1 kV=2.402 kW=0.0 kvar=0 model=1 Vmaxpu=2.0 Vminpu=0.1
New Generator.DG_S52c Bus1 =52.3 Phases = 1 kV=2.402 kW=0.0 kvar=0 model=1 Vmaxpu=2.0 Vminpu=0.1
New Generator.DG_S53a Bus1 =53.1 Phases = 1 kV=2.402 kW=35.99999989557274 kvar=0 model=1 Vmaxpu=2.0 Vminpu=0.1
New Generator.DG_S53b Bus1 =53.2 Phases = 1 kV=2.402 kW=0.0 kvar=0 model=1 Vmaxpu=2.0 Vminpu=0.1
New Generator.DG_S53c Bus1 =53.3 Phases = 1 kV=2.402 kW=0.0 kvar=0 model=1 Vmaxpu=2.0 Vminpu=0.1
New Generator.DG_S54a Bus1 =54.1 Phases = 1 kV=2.402 kW=0.0 kvar=0 model=1 Vmaxpu=2.0 Vminpu=0.1
New Generator.DG_S54b Bus1 =54.2 Phases = 1 kV=2.402 kW=0.0 kvar=0 model=1 Vmaxpu=2.0 Vminpu=0.1
New Generator.DG_S54c Bus1 =54.3 Phases = 1 kV=2.402 kW=0.0 kvar=0 model=1 Vmaxpu=2.0 Vminpu=0.1
New Generator.DG_S55a Bus1 =55.1 Phases = 1 kV=2.402 kW=17.99999884447466 kvar=0 model=1 Vmaxpu=2.0 Vminpu=0.1
New Generator.DG_S55b Bus1 =55.2 Phases = 1 kV=2.402 kW=0.0 kvar=0 model=1 Vmaxpu=2.0 Vminpu=0.1
New Generator.DG_S55c Bus1 =55.3 Phases = 1 kV=2.402 kW=0.0 kvar=0 model=1 Vmaxpu=2.0 Vminpu=0.1
New Generator.DG_S57a Bus1 =57.1 Phases = 1 kV=2.402 kW=0.0 kvar=0 model=1 Vmaxpu=2.0 Vminpu=0.1
New Generator.DG_S57b Bus1 =57.2 Phases = 1 kV=2.402 kW=0.0 kvar=0 model=1 Vmaxpu=2.0 Vminpu=0.1
New Generator.DG_S57c Bus1 =57.3 Phases = 1 kV=2.402 kW=0.0 kvar=0 model=1 Vmaxpu=2.0 Vminpu=0.1
New Generator.DG_S56a Bus1 =56.1 Phases = 1 kV=2.402 kW=0.0 kvar=0 model=1 Vmaxpu=2.0 Vminpu=0.1
New Generator.DG_S56b Bus1 =56.2 Phases = 1 kV=2.402 kW=17.999999908885652 kvar=0 model=1 Vmaxpu=2.0 Vminpu=0.1
New Generator.DG_S56c Bus1 =56.3 Phases = 1 kV=2.402 kW=0.0 kvar=0 model=1 Vmaxpu=2.0 Vminpu=0.1
New Generator.DG_S58b Bus1 =58.2 Phases = 1 kV=2.402 kW=17.999999963344447 kvar=0 model=1 Vmaxpu=2.0 Vminpu=0.1
New Generator.DG_S60a Bus1 =60.1 Phases = 1 kV=2.402 kW=0.0 kvar=0 model=1 Vmaxpu=2.0 Vminpu=0.1
New Generator.DG_S60b Bus1 =60.2 Phases = 1 kV=2.402 kW=0.0 kvar=0 model=1 Vmaxpu=2.0 Vminpu=0.1
New Generator.DG_S60c Bus1 =60.3 Phases = 1 kV=2.402 kW=0.0 kvar=0 model=1 Vmaxpu=2.0 Vminpu=0.1
New Generator.DG_S59b Bus1 =59.2 Phases = 1 kV=2.402 kW=17.999999963132403 kvar=0 model=1 Vmaxpu=2.0 Vminpu=0.1
New Generator.DG_S61a Bus1 =61.1 Phases = 1 kV=2.402 kW=0.0 kvar=0 model=1 Vmaxpu=2.0 Vminpu=0.1
New Generator.DG_S61b Bus1 =61.2 Phases = 1 kV=2.402 kW=0.0 kvar=0 model=1 Vmaxpu=2.0 Vminpu=0.1
New Generator.DG_S61c Bus1 =61.3 Phases = 1 kV=2.402 kW=0.0 kvar=0 model=1 Vmaxpu=2.0 Vminpu=0.1
New Generator.DG_S62a Bus1 =62.1 Phases = 1 kV=2.402 kW=0.0 kvar=0 model=1 Vmaxpu=2.0 Vminpu=0.1
New Generator.DG_S62b Bus1 =62.2 Phases = 1 kV=2.402 kW=0.0 kvar=0 model=1 Vmaxpu=2.0 Vminpu=0.1
New Generator.DG_S62c Bus1 =62.3 Phases = 1 kV=2.402 kW=35.9999999227348 kvar=0 model=1 Vmaxpu=2.0 Vminpu=0.1
New Generator.DG_S63a Bus1 =63.1 Phases = 1 kV=2.402 kW=35.99999963227512 kvar=0 model=1 Vmaxpu=2.0 Vminpu=0.1
New Generator.DG_S63b Bus1 =63.2 Phases = 1 kV=2.402 kW=0.0 kvar=0 model=1 Vmaxpu=2.0 Vminpu=0.1
New Generator.DG_S63c Bus1 =63.3 Phases = 1 kV=2.402 kW=0.0 kvar=0 model=1 Vmaxpu=2.0 Vminpu=0.1
New Generator.DG_S64a Bus1 =64.1 Phases = 1 kV=2.402 kW=0.0 kvar=0 model=1 Vmaxpu=2.0 Vminpu=0.1
New Generator.DG_S64b Bus1 =64.2 Phases = 1 kV=2.402 kW=67.499999931681 kvar=0 model=1 Vmaxpu=2.0 Vminpu=0.1
New Generator.DG_S64c Bus1 =64.3 Phases = 1 kV=2.402 kW=0.0 kvar=0 model=1 Vmaxpu=2.0 Vminpu=0.1
New Generator.DG_S65a Bus1 =65.1 Phases = 1 kV=2.402 kW=27.422205791052622 kvar=0 model=1 Vmaxpu=2.0 Vminpu=0.1
New Generator.DG_S65b Bus1 =65.2 Phases = 1 kV=2.402 kW=0.0 kvar=0 model=1 Vmaxpu=2.0 Vminpu=0.1
New Generator.DG_S65c Bus1 =65.3 Phases = 1 kV=2.402 kW=57.15092976375327 kvar=0 model=1 Vmaxpu=2.0 Vminpu=0.1
New Generator.DG_S66a Bus1 =66.1 Phases = 1 kV=2.402 kW=0.0 kvar=0 model=1 Vmaxpu=2.0 Vminpu=0.1
New Generator.DG_S66b Bus1 =66.2 Phases = 1 kV=2.402 kW=0.0 kvar=0 model=1 Vmaxpu=2.0 Vminpu=0.1
New Generator.DG_S66c Bus1 =66.3 Phases = 1 kV=2.402 kW=19.60629149795101 kvar=0 model=1 Vmaxpu=2.0 Vminpu=0.1
New Generator.DG_S67a Bus1 =67.1 Phases = 1 kV=2.402 kW=0.0 kvar=0 model=1 Vmaxpu=2.0 Vminpu=0.1
New Generator.DG_S67b Bus1 =67.2 Phases = 1 kV=2.402 kW=0.0 kvar=0 model=1 Vmaxpu=2.0 Vminpu=0.1
New Generator.DG_S67c Bus1 =67.3 Phases = 1 kV=2.402 kW=0.0 kvar=0 model=1 Vmaxpu=2.0 Vminpu=0.1
New Generator.DG_S68a Bus1 =68.1 Phases = 1 kV=2.402 kW=17.999999776205712 kvar=0 model=1 Vmaxpu=2.0 Vminpu=0.1
New Generator.DG_S72a Bus1 =72.1 Phases = 1 kV=2.402 kW=0.0 kvar=0 model=1 Vmaxpu=2.0 Vminpu=0.1
New Generator.DG_S72b Bus1 =72.2 Phases = 1 kV=2.402 kW=0.0 kvar=0 model=1 Vmaxpu=2.0 Vminpu=0.1
New Generator.DG_S72c Bus1 =72.3 Phases = 1 kV=2.402 kW=0.0 kvar=0 model=1 Vmaxpu=2.0 Vminpu=0.1
New Generator.DG_S97a Bus1 =97.1 Phases = 1 kV=2.402 kW=0.0 kvar=0 model=1 Vmaxpu=2.0 Vminpu=0.1
New Generator.DG_S97b Bus1 =97.2 Phases = 1 kV=2.402 kW=0.0 kvar=0 model=1 Vmaxpu=2.0 Vminpu=0.1
New Generator.DG_S97c Bus1 =97.3 Phases = 1 kV=2.402 kW=0.0 kvar=0 model=1 Vmaxpu=2.0 Vminpu=0.1
New Generator.DG_S69a Bus1 =69.1 Phases = 1 kV=2.402 kW=35.999999573292676 kvar=0 model=1 Vmaxpu=2.0 Vminpu=0.1
New Generator.DG_S70a Bus1 =70.1 Phases = 1 kV=2.402 kW=0.0 kvar=0 model=1 Vmaxpu=2.0 Vminpu=0.1
New Generator.DG_S71a Bus1 =71.1 Phases = 1 kV=2.402 kW=32.85104742502957 kvar=0 model=1 Vmaxpu=2.0 Vminpu=0.1
New Generator.DG_S73c Bus1 =73.3 Phases = 1 kV=2.402 kW=35.99999991435989 kvar=0 model=1 Vmaxpu=2.0 Vminpu=0.1
New Generator.DG_S76a Bus1 =76.1 Phases = 1 kV=2.402 kW=94.49999989312602 kvar=0 model=1 Vmaxpu=2.0 Vminpu=0.1
New Generator.DG_S76b Bus1 =76.2 Phases = 1 kV=2.402 kW=62.999999478761765 kvar=0 model=1 Vmaxpu=2.0 Vminpu=0.1
New Generator.DG_S76c Bus1 =76.3 Phases = 1 kV=2.402 kW=62.999999871979135 kvar=0 model=1 Vmaxpu=2.0 Vminpu=0.1
New Generator.DG_S74c Bus1 =74.3 Phases = 1 kV=2.402 kW=36.00000000013079 kvar=0 model=1 Vmaxpu=2.0 Vminpu=0.1
New Generator.DG_S75c Bus1 =75.3 Phases = 1 kV=2.402 kW=18.08260636408011 kvar=0 model=1 Vmaxpu=2.0 Vminpu=0.1
New Generator.DG_S77a Bus1 =77.1 Phases = 1 kV=2.402 kW=0.0 kvar=0 model=1 Vmaxpu=2.0 Vminpu=0.1
New Generator.DG_S77b Bus1 =77.2 Phases = 1 kV=2.402 kW=34.548811227426675 kvar=0 model=1 Vmaxpu=2.0 Vminpu=0.1
New Generator.DG_S77c Bus1 =77.3 Phases = 1 kV=2.402 kW=0.0 kvar=0 model=1 Vmaxpu=2.0 Vminpu=0.1
New Generator.DG_S86a Bus1 =86.1 Phases = 1 kV=2.402 kW=0.0 kvar=0 model=1 Vmaxpu=2.0 Vminpu=0.1
New Generator.DG_S86b Bus1 =86.2 Phases = 1 kV=2.402 kW=17.99999967835447 kvar=0 model=1 Vmaxpu=2.0 Vminpu=0.1
New Generator.DG_S86c Bus1 =86.3 Phases = 1 kV=2.402 kW=0.0 kvar=0 model=1 Vmaxpu=2.0 Vminpu=0.1
New Generator.DG_S78a Bus1 =78.1 Phases = 1 kV=2.402 kW=0.0 kvar=0 model=1 Vmaxpu=2.0 Vminpu=0.1
New Generator.DG_S78b Bus1 =78.2 Phases = 1 kV=2.402 kW=0.0 kvar=0 model=1 Vmaxpu=2.0 Vminpu=0.1
New Generator.DG_S78c Bus1 =78.3 Phases = 1 kV=2.402 kW=0.0 kvar=0 model=1 Vmaxpu=2.0 Vminpu=0.1
New Generator.DG_S79a Bus1 =79.1 Phases = 1 kV=2.402 kW=0.0 kvar=0 model=1 Vmaxpu=2.0 Vminpu=0.1
New Generator.DG_S79b Bus1 =79.2 Phases = 1 kV=2.402 kW=0.0 kvar=0 model=1 Vmaxpu=2.0 Vminpu=0.1
New Generator.DG_S79c Bus1 =79.3 Phases = 1 kV=2.402 kW=0.0 kvar=0 model=1 Vmaxpu=2.0 Vminpu=0.1
New Generator.DG_S80a Bus1 =80.1 Phases = 1 kV=2.402 kW=0.0 kvar=0 model=1 Vmaxpu=2.0 Vminpu=0.1
New Generator.DG_S80b Bus1 =80.2 Phases = 1 kV=2.402 kW=1.355927071011921e-07 kvar=0 model=1 Vmaxpu=2.0 Vminpu=0.1
New Generator.DG_S80c Bus1 =80.3 Phases = 1 kV=2.402 kW=0.0 kvar=0 model=1 Vmaxpu=2.0 Vminpu=0.1
New Generator.DG_S81a Bus1 =81.1 Phases = 1 kV=2.402 kW=0.0 kvar=0 model=1 Vmaxpu=2.0 Vminpu=0.1
New Generator.DG_S81b Bus1 =81.2 Phases = 1 kV=2.402 kW=0.0 kvar=0 model=1 Vmaxpu=2.0 Vminpu=0.1
New Generator.DG_S81c Bus1 =81.3 Phases = 1 kV=2.402 kW=0.0 kvar=0 model=1 Vmaxpu=2.0 Vminpu=0.1
New Generator.DG_S82a Bus1 =82.1 Phases = 1 kV=2.402 kW=0.0 kvar=0 model=1 Vmaxpu=2.0 Vminpu=0.1
New Generator.DG_S82b Bus1 =82.2 Phases = 1 kV=2.402 kW=0.0 kvar=0 model=1 Vmaxpu=2.0 Vminpu=0.1
New Generator.DG_S82c Bus1 =82.3 Phases = 1 kV=2.402 kW=0.0 kvar=0 model=1 Vmaxpu=2.0 Vminpu=0.1
New Generator.DG_S84c Bus1 =84.3 Phases = 1 kV=2.402 kW=15.960367444267824 kvar=0 model=1 Vmaxpu=2.0 Vminpu=0.1
New Generator.DG_S83a Bus1 =83.1 Phases = 1 kV=2.402 kW=0.0 kvar=0 model=1 Vmaxpu=2.0 Vminpu=0.1
New Generator.DG_S83b Bus1 =83.2 Phases = 1 kV=2.402 kW=0.0 kvar=0 model=1 Vmaxpu=2.0 Vminpu=0.1
New Generator.DG_S83c Bus1 =83.3 Phases = 1 kV=2.402 kW=1.3707442197092332e-06 kvar=0 model=1 Vmaxpu=2.0 Vminpu=0.1
New Generator.DG_S85c Bus1 =85.3 Phases = 1 kV=2.402 kW=28.024223690611713 kvar=0 model=1 Vmaxpu=2.0 Vminpu=0.1
New Generator.DG_S87a Bus1 =87.1 Phases = 1 kV=2.402 kW=0.0 kvar=0 model=1 Vmaxpu=2.0 Vminpu=0.1
New Generator.DG_S87b Bus1 =87.2 Phases = 1 kV=2.402 kW=35.999999346555455 kvar=0 model=1 Vmaxpu=2.0 Vminpu=0.1
New Generator.DG_S87c Bus1 =87.3 Phases = 1 kV=2.402 kW=0.0 kvar=0 model=1 Vmaxpu=2.0 Vminpu=0.1
New Generator.DG_S88a Bus1 =88.1 Phases = 1 kV=2.402 kW=35.99999989604922 kvar=0 model=1 Vmaxpu=2.0 Vminpu=0.1
New Generator.DG_S89a Bus1 =89.1 Phases = 1 kV=2.402 kW=0.0 kvar=0 model=1 Vmaxpu=2.0 Vminpu=0.1
New Generator.DG_S89b Bus1 =89.2 Phases = 1 kV=2.402 kW=0.0 kvar=0 model=1 Vmaxpu=2.0 Vminpu=0.1
New Generator.DG_S89c Bus1 =89.3 Phases = 1 kV=2.402 kW=0.0 kvar=0 model=1 Vmaxpu=2.0 Vminpu=0.1
New Generator.DG_S90b Bus1 =90.2 Phases = 1 kV=2.402 kW=35.99994340331687 kvar=0 model=1 Vmaxpu=2.0 Vminpu=0.1
New Generator.DG_S91a Bus1 =91.1 Phases = 1 kV=2.402 kW=0.0 kvar=0 model=1 Vmaxpu=2.0 Vminpu=0.1
New Generator.DG_S91b Bus1 =91.2 Phases = 1 kV=2.402 kW=0.0 kvar=0 model=1 Vmaxpu=2.0 Vminpu=0.1
New Generator.DG_S91c Bus1 =91.3 Phases = 1 kV=2.402 kW=0.0 kvar=0 model=1 Vmaxpu=2.0 Vminpu=0.1
New Generator.DG_S92c Bus1 =92.3 Phases = 1 kV=2.402 kW=35.999999891585766 kvar=0 model=1 Vmaxpu=2.0 Vminpu=0.1
New Generator.DG_S93a Bus1 =93.1 Phases = 1 kV=2.402 kW=0.0 kvar=0 model=1 Vmaxpu=2.0 Vminpu=0.1
New Generator.DG_S93b Bus1 =93.2 Phases = 1 kV=2.402 kW=0.0 kvar=0 model=1 Vmaxpu=2.0 Vminpu=0.1
New Generator.DG_S93c Bus1 =93.3 Phases = 1 kV=2.402 kW=0.0 kvar=0 model=1 Vmaxpu=2.0 Vminpu=0.1
New Generator.DG_S94a Bus1 =94.1 Phases = 1 kV=2.402 kW=32.2065514218167 kvar=0 model=1 Vmaxpu=2.0 Vminpu=0.1
New Generator.DG_S95a Bus1 =95.1 Phases = 1 kV=2.402 kW=0.0 kvar=0 model=1 Vmaxpu=2.0 Vminpu=0.1
New Generator.DG_S95b Bus1 =95.2 Phases = 1 kV=2.402 kW=13.580962240097838 kvar=0 model=1 Vmaxpu=2.0 Vminpu=0.1
New Generator.DG_S95c Bus1 =95.3 Phases = 1 kV=2.402 kW=0.0 kvar=0 model=1 Vmaxpu=2.0 Vminpu=0.1
New Generator.DG_S96b Bus1 =96.2 Phases = 1 kV=2.402 kW=12.365499793462396 kvar=0 model=1 Vmaxpu=2.0 Vminpu=0.1
New Generator.DG_S98a Bus1 =98.1 Phases = 1 kV=2.402 kW=35.999999703267044 kvar=0 model=1 Vmaxpu=2.0 Vminpu=0.1
New Generator.DG_S98b Bus1 =98.2 Phases = 1 kV=2.402 kW=0.0 kvar=0 model=1 Vmaxpu=2.0 Vminpu=0.1
New Generator.DG_S98c Bus1 =98.3 Phases = 1 kV=2.402 kW=0.0 kvar=0 model=1 Vmaxpu=2.0 Vminpu=0.1
New Generator.DG_S99a Bus1 =99.1 Phases = 1 kV=2.402 kW=0.0 kvar=0 model=1 Vmaxpu=2.0 Vminpu=0.1
New Generator.DG_S99b Bus1 =99.2 Phases = 1 kV=2.402 kW=35.99999991317239 kvar=0 model=1 Vmaxpu=2.0 Vminpu=0.1
New Generator.DG_S99c Bus1 =99.3 Phases = 1 kV=2.402 kW=0.0 kvar=0 model=1 Vmaxpu=2.0 Vminpu=0.1
New Generator.DG_S100a Bus1 =100.1 Phases = 1 kV=2.402 kW=0.0 kvar=0 model=1 Vmaxpu=2.0 Vminpu=0.1
New Generator.DG_S100b Bus1 =100.2 Phases = 1 kV=2.402 kW=0.0 kvar=0 model=1 Vmaxpu=2.0 Vminpu=0.1
New Generator.DG_S100c Bus1 =100.3 Phases = 1 kV=2.402 kW=35.999999948740246 kvar=0 model=1 Vmaxpu=2.0 Vminpu=0.1
New Generator.DG_S450a Bus1 =450.1 Phases = 1 kV=2.402 kW=0.0 kvar=0 model=1 Vmaxpu=2.0 Vminpu=0.1
New Generator.DG_S450b Bus1 =450.2 Phases = 1 kV=2.402 kW=0.0 kvar=0 model=1 Vmaxpu=2.0 Vminpu=0.1
New Generator.DG_S450c Bus1 =450.3 Phases = 1 kV=2.402 kW=0.0 kvar=0 model=1 Vmaxpu=2.0 Vminpu=0.1
New Generator.DG_S197a Bus1 =197.1 Phases = 1 kV=2.402 kW=0.0 kvar=0 model=1 Vmaxpu=2.0 Vminpu=0.1
New Generator.DG_S197b Bus1 =197.2 Phases = 1 kV=2.402 kW=0.0 kvar=0 model=1 Vmaxpu=2.0 Vminpu=0.1
New Generator.DG_S197c Bus1 =197.3 Phases = 1 kV=2.402 kW=0.0 kvar=0 model=1 Vmaxpu=2.0 Vminpu=0.1
New Generator.DG_S101a Bus1 =101.1 Phases = 1 kV=2.402 kW=0.0 kvar=0 model=1 Vmaxpu=2.0 Vminpu=0.1
New Generator.DG_S101b Bus1 =101.2 Phases = 1 kV=2.402 kW=0.0 kvar=0 model=1 Vmaxpu=2.0 Vminpu=0.1
New Generator.DG_S101c Bus1 =101.3 Phases = 1 kV=2.402 kW=0.0 kvar=0 model=1 Vmaxpu=2.0 Vminpu=0.1
New Generator.DG_S102c Bus1 =102.3 Phases = 1 kV=2.402 kW=17.999999954677307 kvar=0 model=1 Vmaxpu=2.0 Vminpu=0.1
New Generator.DG_S105a Bus1 =105.1 Phases = 1 kV=2.402 kW=0.0 kvar=0 model=1 Vmaxpu=2.0 Vminpu=0.1
New Generator.DG_S105b Bus1 =105.2 Phases = 1 kV=2.402 kW=0.0 kvar=0 model=1 Vmaxpu=2.0 Vminpu=0.1
New Generator.DG_S105c Bus1 =105.3 Phases = 1 kV=2.402 kW=0.0 kvar=0 model=1 Vmaxpu=2.0 Vminpu=0.1
New Generator.DG_S103c Bus1 =103.3 Phases = 1 kV=2.402 kW=0.0 kvar=0 model=1 Vmaxpu=2.0 Vminpu=0.1
New Generator.DG_S104c Bus1 =104.3 Phases = 1 kV=2.402 kW=35.99999995111864 kvar=0 model=1 Vmaxpu=2.0 Vminpu=0.1
New Generator.DG_S106b Bus1 =106.2 Phases = 1 kV=2.402 kW=35.99999992376123 kvar=0 model=1 Vmaxpu=2.0 Vminpu=0.1
New Generator.DG_S108a Bus1 =108.1 Phases = 1 kV=2.402 kW=0.0 kvar=0 model=1 Vmaxpu=2.0 Vminpu=0.1
New Generator.DG_S108b Bus1 =108.2 Phases = 1 kV=2.402 kW=0.0 kvar=0 model=1 Vmaxpu=2.0 Vminpu=0.1
New Generator.DG_S108c Bus1 =108.3 Phases = 1 kV=2.402 kW=0.0 kvar=0 model=1 Vmaxpu=2.0 Vminpu=0.1
New Generator.DG_S107b Bus1 =107.2 Phases = 1 kV=2.402 kW=35.99999995450925 kvar=0 model=1 Vmaxpu=2.0 Vminpu=0.1
New Generator.DG_S109a Bus1 =109.1 Phases = 1 kV=2.402 kW=35.99999808780254 kvar=0 model=1 Vmaxpu=2.0 Vminpu=0.1
New Generator.DG_S300a Bus1 =300.1 Phases = 1 kV=2.402 kW=0.0 kvar=0 model=1 Vmaxpu=2.0 Vminpu=0.1
New Generator.DG_S300b Bus1 =300.2 Phases = 1 kV=2.402 kW=0.0 kvar=0 model=1 Vmaxpu=2.0 Vminpu=0.1
New Generator.DG_S300c Bus1 =300.3 Phases = 1 kV=2.402 kW=0.0 kvar=0 model=1 Vmaxpu=2.0 Vminpu=0.1
New Generator.DG_S110a Bus1 =110.1 Phases = 1 kV=2.402 kW=0.0 kvar=0 model=1 Vmaxpu=2.0 Vminpu=0.1
New Generator.DG_S111a Bus1 =111.1 Phases = 1 kV=2.402 kW=10.210677566635173 kvar=0 model=1 Vmaxpu=2.0 Vminpu=0.1
New Generator.DG_S112a Bus1 =112.1 Phases = 1 kV=2.402 kW=16.981307613906303 kvar=0 model=1 Vmaxpu=2.0 Vminpu=0.1
New Generator.DG_S113a Bus1 =113.1 Phases = 1 kV=2.402 kW=21.60905490503709 kvar=0 model=1 Vmaxpu=2.0 Vminpu=0.1
New Generator.DG_S114a Bus1 =114.1 Phases = 1 kV=2.402 kW=2.9540808690460127 kvar=0 model=1 Vmaxpu=2.0 Vminpu=0.1
New Generator.DG_S135a Bus1 =135.1 Phases = 1 kV=2.402 kW=0.0 kvar=0 model=1 Vmaxpu=2.0 Vminpu=0.1
New Generator.DG_S135b Bus1 =135.2 Phases = 1 kV=2.402 kW=0.0 kvar=0 model=1 Vmaxpu=2.0 Vminpu=0.1
New Generator.DG_S135c Bus1 =135.3 Phases = 1 kV=2.402 kW=0.0 kvar=0 model=1 Vmaxpu=2.0 Vminpu=0.1
New Generator.DG_S152a Bus1 =152.1 Phases = 1 kV=2.402 kW=0.0 kvar=0 model=1 Vmaxpu=2.0 Vminpu=0.1
New Generator.DG_S152b Bus1 =152.2 Phases = 1 kV=2.402 kW=0.0 kvar=0 model=1 Vmaxpu=2.0 Vminpu=0.1
New Generator.DG_S152c Bus1 =152.3 Phases = 1 kV=2.402 kW=0.0 kvar=0 model=1 Vmaxpu=2.0 Vminpu=0.1
New Generator.DG_S160ra Bus1 =160r.1 Phases = 1 kV=2.402 kW=0.0 kvar=0 model=1 Vmaxpu=2.0 Vminpu=0.1
New Generator.DG_S160rb Bus1 =160r.2 Phases = 1 kV=2.402 kW=0.0 kvar=0 model=1 Vmaxpu=2.0 Vminpu=0.1
New Generator.DG_S160rc Bus1 =160r.3 Phases = 1 kV=2.402 kW=0.0 kvar=0 model=1 Vmaxpu=2.0 Vminpu=0.1
New Generator.DG_S160a Bus1 =160.1 Phases = 1 kV=2.402 kW=0.0 kvar=0 model=1 Vmaxpu=2.0 Vminpu=0.1
New Generator.DG_S160b Bus1 =160.2 Phases = 1 kV=2.402 kW=0.0 kvar=0 model=1 Vmaxpu=2.0 Vminpu=0.1
New Generator.DG_S160c Bus1 =160.3 Phases = 1 kV=2.402 kW=0.0 kvar=0 model=1 Vmaxpu=2.0 Vminpu=0.1
New Generator.DG_S61sa Bus1 =61s.1 Phases = 1 kV=2.402 kW=0.0 kvar=0 model=1 Vmaxpu=2.0 Vminpu=0.1
New Generator.DG_S61sb Bus1 =61s.2 Phases = 1 kV=2.402 kW=0.0 kvar=0 model=1 Vmaxpu=2.0 Vminpu=0.1
New Generator.DG_S61sc Bus1 =61s.3 Phases = 1 kV=2.402 kW=0.0 kvar=0 model=1 Vmaxpu=2.0 Vminpu=0.1
